%chk=sim006_gas.chk
# rb3lyp/aug-cc-pvdz empiricaldispersion=gd3 int(grid=ultrafine, acc2e=11) scf=(tight,maxcycles=500) iop(1/152=1000) opt=(maxcycles=1000,cartesian) freq=noraman nosymm

G16 gas-phase opt/freq job for sim006

0 1
4      1.18614      -1.16230      1.85785
4      0.48845      -1.95154      -1.38850
4      -2.24354      -0.51410      0.60751
2      0.30246      -2.77555      -0.93949
2      1.30646      -2.11255      -1.85750
2      -2.42854      -0.42109      1.54250
2      -3.09454      -0.70309      0.21250
2      2.08784      -0.96850      1.60254
2      1.18334      -1.07830      2.81115
4      -0.87236      1.35160      -1.80650
4      1.89034      1.46545      -0.14604
2      -1.78876      1.10230      -1.68849
2      -0.72486      1.28530      -2.74950
2      2.54234      1.04745      -0.70803
2      2.39554      2.06546      0.40197
3      0.00000      0.00000      0.00000

