%chk=sim009_gas.chk
# rb3lyp/aug-cc-pvdz empiricaldispersion=gd3 int(grid=ultrafine, acc2e=11) scf=(tight,maxcycles=500) iop(1/152=1000) opt=(maxcycles=1000,cartesian) freq=noraman nosymm

G16 gas-phase opt/freq job for sim009

0 1
4      21.58401      6.95705      45.12774
2      22.34921      6.43206      45.35975
2      21.75751      7.25106      44.23375
4      20.12691      3.93971      46.25779
2      20.99931      3.76341      46.60939
2      19.52821      3.55280      46.89639
4      16.86251      5.51206      45.39674
2      16.56751      4.67606      45.75775
2      16.72481      5.42806      44.45375
4      18.85565      7.14900      47.65139
2      19.14025      7.17301      48.56479
2      18.51575      8.02761      47.48289
4      18.99651      6.14306      43.01829
2      18.61201      5.40806      42.54059
2      19.35921      6.70905      42.33689
3      19.15731      6.11550      45.51719

