%chk=sim004_gas.chk
# rb3lyp/aug-cc-pvdz empiricaldispersion=gd3 int(grid=ultrafine, acc2e=11) scf=(tight,maxcycles=500) iop(1/152=1000) opt=(maxcycles=1000,cartesian) freq=noraman nosymm

G16 gas-phase opt/freq job for sim004

0 1
2      -0.76240      -0.71460      2.80270
4      -1.79844      -1.41400      -0.97724
4      1.16020      0.22811      -2.06095
2      -1.86144      -2.18630      -1.53825
2      -2.67444      -1.31430      -0.60624
2      1.78040      0.84381      -2.45106
2      1.23140      -0.55870      -2.60105
4      1.95060      0.70691      1.34684
2      2.10940      1.57190      0.96984
2      2.33410      0.75290      2.22245
4      -1.02144      2.10930      -0.57000
2      -0.91844      2.73330      -1.28810
2      -1.82345      2.38511      -0.12600
4      -0.91240      -1.12380      1.95070
2      -1.85090      -1.31019      1.93590
3      0.00000      0.00000      0.00000

